** Generated for: hspiceD
** Generated on: Sep 22 16:25:40 2014
** Design library name: dummy_4_bit
** Design cell name: test_XORX2
** Design view name: schematic
.GLOBAL _gnet0 vdd! vss!
.PARAM vdd=1 v_low=0 buff_vdd=vdd v_hig=vdd


.TRAN 100e-12 10e-9 START=0.0

.OP

.TEMP 25
.OPTION
+    ARTIST=2
+    INGOLD=2
+    PARHIER=LOCAL
+    PSF=2
.INCLUDE "/ad/eng/users/b/o/bobzhou/Desktop/571/hw3/tech_files/45nm_HP.pm"

** Library name: NangateOpenCellLibrary
** Cell name: XOR2_X2
** View name: schematic
.subckt XOR2_X2 a b z
m_i_19 net_001 a z vss! NMOS_VTL L=50e-9 W=415e-9
m_i_24 vss! b net_001 vss! NMOS_VTL L=50e-9 W=415e-9
m_i_19_23 net_001b a z vss! NMOS_VTL L=50e-9 W=415e-9
m_i_24_4 vss! b net_001b vss! NMOS_VTL L=50e-9 W=415e-9
m_i_0 net_000 a vss! vss! NMOS_VTL L=50e-9 W=415e-9
m_i_7 vss! b net_000 vss! NMOS_VTL L=50e-9 W=415e-9
m_i_13 z net_000 vss! vss! NMOS_VTL L=50e-9 W=415e-9
m_i_13_35 z net_000 vss! vss! NMOS_VTL L=50e-9 W=415e-9
m_i_30 net_002 a net_000 vdd! PMOS_VTL L=50e-9 W=630e-9
m_i_35 vdd! b net_002 vdd! PMOS_VTL L=50e-9 W=630e-9
m_i_41 net_003 net_000 vdd! vdd! PMOS_VTL L=50e-9 W=630e-9
m_i_41_29 net_003 net_000 vdd! vdd! PMOS_VTL L=50e-9 W=630e-9
m_i_47 z a net_003 vdd! PMOS_VTL L=50e-9 W=630e-9
m_i_53 net_003 b z vdd! PMOS_VTL L=50e-9 W=630e-9
m_i_53_18 net_003 b z vdd! PMOS_VTL L=50e-9 W=630e-9
m_i_47_27 z a net_003 vdd! PMOS_VTL L=50e-9 W=630e-9
.ends XOR2_X2
** End of subcircuit definition.

** Library name: equalized_logic
** Cell name: buffer4test
** View name: schematic
.subckt buffer4test buff_vdd buff_vss input output inh_bulk_n inh_bulk_p
m1 output net14 buff_vdd inh_bulk_p pmos_vtl L=50e-9 W=1.26e-6
m3 net14 input buff_vdd inh_bulk_p pmos_vtl L=50e-9 W=1.26e-6
m0 output net14 buff_vss inh_bulk_n nmos_vtl L=50e-9 W=830e-9
m9 net14 input buff_vss inh_bulk_n nmos_vtl L=50e-9 W=830e-9
.ends buffer4test
** End of subcircuit definition.

** Library name: dummy_4_bit
** Cell name: test_XORX2
** View name: schematic
xi30 a_in b_in output XOR2_X2
f0 vpower 0 CCCS v3  1 M=1
v10 buff_vss 0 DC=0
v8 buff_vdd 0 DC=buff_vdd
v6 vss! 0 DC=0
v3 vdd! 0 DC=vdd
xi16 buff_vdd buff_vss a a_in 0 _gnet0 buffer4test
xi17 buff_vdd buff_vss b1 b_in 0 _gnet0 buffer4test
c10 vpower 0 1e-12 IC=0
c0 output 0 663e-18
v1 a 0 PWL
+ 0.000001n V_low
+ 0.100000n V_low
+ 0.100001n V_low
+ 0.200000n V_low
+ 0.200001n V_low
+ 0.300000n V_low
+ 0.300001n V_low
+ 0.400000n V_low
+ 0.400001n V_low
+ 0.500000n V_low
+ 0.500001n V_low
+ 0.600000n V_low
+ 0.600001n V_low
+ 0.700000n V_low
+ 0.700001n V_low
+ 0.800000n V_low
+ 0.800001n V_low
+ 0.900000n V_low
+ 0.900001n V_low
+ 1.000000n V_low
+ 1.000001n V_hig
+ 1.100000n V_hig
+ 1.100001n V_hig
+ 1.200000n V_hig
+ 1.200001n V_hig
+ 1.300000n V_hig
+ 1.300001n V_hig
+ 1.400000n V_hig
+ 1.400001n V_hig
+ 1.500000n V_hig
+ 1.500001n V_hig
+ 1.600000n V_hig
+ 1.600001n V_hig
+ 1.700000n V_hig
+ 1.700001n V_hig
+ 1.800000n V_hig
+ 1.800001n V_hig
+ 1.900000n V_hig
+ 1.900001n V_hig
+ 2.000000n V_hig
+ 2.000001n V_low
+ 2.100000n V_low
+ 2.100001n V_low
+ 2.200000n V_low
+ 2.200001n V_low
+ 2.300000n V_low
+ 2.300001n V_low
+ 2.400000n V_low
+ 2.400001n V_low
+ 2.500000n V_low
+ 2.500001n V_low
+ 2.600000n V_low
+ 2.600001n V_low
+ 2.700000n V_low
+ 2.700001n V_low
+ 2.800000n V_low
+ 2.800001n V_low
+ 2.900000n V_low
+ 2.900001n V_low
+ 3.000000n V_low
+ 3.000001n V_hig
+ 3.100000n V_hig
+ 3.100001n V_hig
+ 3.200000n V_hig
+ 3.200001n V_hig
+ 3.300000n V_hig
+ 3.300001n V_hig
+ 3.400000n V_hig
+ 3.400001n V_hig
+ 3.500000n V_hig
+ 3.500001n V_hig
+ 3.600000n V_hig
+ 3.600001n V_hig
+ 3.700000n V_hig
+ 3.700001n V_hig
+ 3.800000n V_hig
+ 3.800001n V_hig
+ 3.900000n V_hig
+ 3.900001n V_hig
+ 4.000000n V_hig
+ 4.000001n V_low
+ 4.100000n V_low
+ 4.100001n V_low
+ 4.200000n V_low
+ 4.200001n V_low
+ 4.300000n V_low
+ 4.300001n V_low
+ 4.400000n V_low
+ 4.400001n V_low
+ 4.500000n V_low
+ 4.500001n V_low
+ 4.600000n V_low
+ 4.600001n V_low
+ 4.700000n V_low
+ 4.700001n V_low
+ 4.800000n V_low
+ 4.800001n V_low
+ 4.900000n V_low
+ 4.900001n V_low
+ 5.000000n V_low
+ 5.000001n V_hig
+ 5.100000n V_hig
+ 5.100001n V_hig
+ 5.200000n V_hig
+ 5.200001n V_hig
+ 5.300000n V_hig
+ 5.300001n V_hig
+ 5.400000n V_hig
+ 5.400001n V_hig
+ 5.500000n V_hig
+ 5.500001n V_hig
+ 5.600000n V_hig
+ 5.600001n V_hig
+ 5.700000n V_hig
+ 5.700001n V_hig
+ 5.800000n V_hig
+ 5.800001n V_hig
+ 5.900000n V_hig
+ 5.900001n V_hig
+ 6.000000n V_hig
+ 6.000001n V_low
+ 6.100000n V_low
+ 6.100001n V_low
+ 6.200000n V_low
+ 6.200001n V_low
+ 6.300000n V_low
+ 6.300001n V_low
+ 6.400000n V_low
+ 6.400001n V_low
+ 6.500000n V_low
+ 6.500001n V_low
+ 6.600000n V_low
+ 6.600001n V_low
+ 6.700000n V_low
+ 6.700001n V_low
+ 6.800000n V_low
+ 6.800001n V_low
+ 6.900000n V_low
+ 6.900001n V_low
+ 7.000000n V_low
+ 7.000001n V_hig
+ 7.100000n V_hig
+ 7.100001n V_hig
+ 7.200000n V_hig
+ 7.200001n V_hig
+ 7.300000n V_hig
+ 7.300001n V_hig
+ 7.400000n V_hig
+ 7.400001n V_hig
+ 7.500000n V_hig
+ 7.500001n V_hig
+ 7.600000n V_hig
+ 7.600001n V_hig
+ 7.700000n V_hig
+ 7.700001n V_hig
+ 7.800000n V_hig
+ 7.800001n V_hig
+ 7.900000n V_hig
+ 7.900001n V_hig
+ 8.000000n V_hig
+ 8.000001n V_low
+ 8.100000n V_low
+ 8.100001n V_low
+ 8.200000n V_low
+ 8.200001n V_low
+ 8.300000n V_low
+ 8.300001n V_low
+ 8.400000n V_low
+ 8.400001n V_low
+ 8.500000n V_low
+ 8.500001n V_low
+ 8.600000n V_low
+ 8.600001n V_low
+ 8.700000n V_low
+ 8.700001n V_low
+ 8.800000n V_low
+ 8.800001n V_low
+ 8.900000n V_low
+ 8.900001n V_low
+ 9.000000n V_low
+ 9.000001n V_low
+ 9.100000n V_low
+ 9.100001n V_low
+ 9.200000n V_low
+ 9.200001n V_low
+ 9.300000n V_low
+ 9.300001n V_low
+ 9.400000n V_low
+ 9.400001n V_low
+ 9.500000n V_low
+ 9.500001n V_low
+ 9.600000n V_low
+ 9.600001n V_low
+ 9.700000n V_low
+ 9.700001n V_low
+ 9.800000n V_low
+ 9.800001n V_low
+ 9.900000n V_low
+ 9.900001n V_low
+ 10.000000n V_low
+ 10.000001n V_low
+ 10.100000n V_low
+ 10.100001n V_low
+ 10.200000n V_low
+ 10.200001n V_low
+ 10.300000n V_low
+ 10.300001n V_low
+ 10.400000n V_low
+ 10.400001n V_low
+ 10.500000n V_low
+ 10.500001n V_low
+ 10.600000n V_low
+ 10.600001n V_low
+ 10.700000n V_low
+ 10.700001n V_low
+ 10.800000n V_low
+ 10.800001n V_low
+ 10.900000n V_low
+ 10.900001n V_low
+ 11.000000n V_low
+ 11.000001n V_low
+ 11.100000n V_low
+ 11.100001n V_low
+ 11.200000n V_low
+ 11.200001n V_low
+ 11.300000n V_low
+ 11.300001n V_low
+ 11.400000n V_low
+ 11.400001n V_low
+ 11.500000n V_low
+ 11.500001n V_low
+ 11.600000n V_low
+ 11.600001n V_low
+ 11.700000n V_low
+ 11.700001n V_low
+ 11.800000n V_low
+ 11.800001n V_low
+ 11.900000n V_low
+ 11.900001n V_low
+ 12.000000n V_low
+ 12.000001n V_hig
+ 12.100000n V_hig
+ 12.100001n V_hig
+ 12.200000n V_hig
+ 12.200001n V_hig
+ 12.300000n V_hig
+ 12.300001n V_hig
+ 12.400000n V_hig
+ 12.400001n V_hig
+ 12.500000n V_hig
+ 12.500001n V_hig
+ 12.600000n V_hig
+ 12.600001n V_hig
+ 12.700000n V_hig
+ 12.700001n V_hig
+ 12.800000n V_hig
+ 12.800001n V_hig
+ 12.900000n V_hig
+ 12.900001n V_hig
+ 13.000000n V_hig
+ 13.000001n V_hig
+ 13.100000n V_hig
+ 13.100001n V_hig
+ 13.200000n V_hig
+ 13.200001n V_hig
+ 13.300000n V_hig
+ 13.300001n V_hig
+ 13.400000n V_hig
+ 13.400001n V_hig
+ 13.500000n V_hig
+ 13.500001n V_hig
+ 13.600000n V_hig
+ 13.600001n V_hig
+ 13.700000n V_hig
+ 13.700001n V_hig
+ 13.800000n V_hig
+ 13.800001n V_hig
+ 13.900000n V_hig
+ 13.900001n V_hig
+ 14.000000n V_hig
+ 14.000001n V_hig
+ 14.100000n V_hig
+ 14.100001n V_hig
+ 14.200000n V_hig
+ 14.200001n V_hig
+ 14.300000n V_hig
+ 14.300001n V_hig
+ 14.400000n V_hig
+ 14.400001n V_hig
+ 14.500000n V_hig
+ 14.500001n V_hig
+ 14.600000n V_hig
+ 14.600001n V_hig
+ 14.700000n V_hig
+ 14.700001n V_hig
+ 14.800000n V_hig
+ 14.800001n V_hig
+ 14.900000n V_hig
+ 14.900001n V_hig
+ 15.000000n V_hig
+ 15.000001n V_hig
+ 15.100000n V_hig
+ 15.100001n V_hig
+ 15.200000n V_hig
+ 15.200001n V_hig
+ 15.300000n V_hig
+ 15.300001n V_hig
+ 15.400000n V_hig
+ 15.400001n V_hig
+ 15.500000n V_hig
+ 15.500001n V_hig
+ 15.600000n V_hig
+ 15.600001n V_hig
+ 15.700000n V_hig
+ 15.700001n V_hig
+ 15.800000n V_hig
+ 15.800001n V_hig
+ 15.900000n V_hig
+ 15.900001n V_hig
+ 16.000000n V_hig
+ 16.000001n V_hig
+ 16.100000n V_hig
+ 16.100001n V_hig
+ 16.200000n V_hig
+ 16.200001n V_hig
+ 16.300000n V_hig
+ 16.300001n V_hig
+ 16.400000n V_hig
+ 16.400001n V_hig
+ 16.500000n V_hig
+ 16.500001n V_hig
+ 16.600000n V_hig
+ 16.600001n V_hig
+ 16.700000n V_hig
+ 16.700001n V_hig
+ 16.800000n V_hig
+ 16.800001n V_hig
+ 16.900000n V_hig
+ 16.900001n V_hig
+ 17.000000n V_hig
+ 17.000001n V_hig
+ 17.100000n V_hig
+ 17.100001n V_hig
+ 17.200000n V_hig
+ 17.200001n V_hig
+ 17.300000n V_hig
+ 17.300001n V_hig
+ 17.400000n V_hig
+ 17.400001n V_hig
+ 17.500000n V_hig
+ 17.500001n V_hig
+ 17.600000n V_hig
+ 17.600001n V_hig
+ 17.700000n V_hig
+ 17.700001n V_hig
+ 17.800000n V_hig
+ 17.800001n V_hig
+ 17.900000n V_hig
+ 17.900001n V_hig
+ 18.000000n V_hig
+ 18.000001n V_low
+ 18.100000n V_low
+ 18.100001n V_low
+ 18.200000n V_low
+ 18.200001n V_low
+ 18.300000n V_low
+ 18.300001n V_low
+ 18.400000n V_low
+ 18.400001n V_low
+ 18.500000n V_low
+ 18.500001n V_low
+ 18.600000n V_low
+ 18.600001n V_low
+ 18.700000n V_low
+ 18.700001n V_low
+ 18.800000n V_low
+ 18.800001n V_low
+ 18.900000n V_low
+ 18.900001n V_low
+ 19.000000n V_low
+ 19.000001n V_low
+ 19.100000n V_low
+ 19.100001n V_low
+ 19.200000n V_low
+ 19.200001n V_low
+ 19.300000n V_low
+ 19.300001n V_low
+ 19.400000n V_low
+ 19.400001n V_low
+ 19.500000n V_low
+ 19.500001n V_low
+ 19.600000n V_low
+ 19.600001n V_low
+ 19.700000n V_low
+ 19.700001n V_low
+ 19.800000n V_low
+ 19.800001n V_low
+ 19.900000n V_low
+ 19.900001n V_low
+ 20.000000n V_low
+ 20.000001n V_low
+ 20.100000n V_low
+ 20.100001n V_low
+ 20.200000n V_low
+ 20.200001n V_low
+ 20.300000n V_low
+ 20.300001n V_low
+ 20.400000n V_low
+ 20.400001n V_low
+ 20.500000n V_low
+ 20.500001n V_low
+ 20.600000n V_low
+ 20.600001n V_low
+ 20.700000n V_low
+ 20.700001n V_low
+ 20.800000n V_low
+ 20.800001n V_low
+ 20.900000n V_low
+ 20.900001n V_low
+ 21.000000n V_low
+ 21.000001n V_hig
+ 21.100000n V_hig
+ 21.100001n V_hig
+ 21.200000n V_hig
+ 21.200001n V_hig
+ 21.300000n V_hig
+ 21.300001n V_hig
+ 21.400000n V_hig
+ 21.400001n V_hig
+ 21.500000n V_hig
+ 21.500001n V_hig
+ 21.600000n V_hig
+ 21.600001n V_hig
+ 21.700000n V_hig
+ 21.700001n V_hig
+ 21.800000n V_hig
+ 21.800001n V_hig
+ 21.900000n V_hig
+ 21.900001n V_hig
+ 22.000000n V_hig
+ 22.000001n V_low
+ 22.100000n V_low
+ 22.100001n V_low
+ 22.200000n V_low
+ 22.200001n V_low
+ 22.300000n V_low
+ 22.300001n V_low
+ 22.400000n V_low
+ 22.400001n V_low
+ 22.500000n V_low
+ 22.500001n V_low
+ 22.600000n V_low
+ 22.600001n V_low
+ 22.700000n V_low
+ 22.700001n V_low
+ 22.800000n V_low
+ 22.800001n V_low
+ 22.900000n V_low
+ 22.900001n V_low
+ 23.000000n V_low
+ 23.000001n V_hig
+ 23.100000n V_hig
+ 23.100001n V_hig
+ 23.200000n V_hig
+ 23.200001n V_hig
+ 23.300000n V_hig
+ 23.300001n V_hig
+ 23.400000n V_hig
+ 23.400001n V_hig
+ 23.500000n V_hig
+ 23.500001n V_hig
+ 23.600000n V_hig
+ 23.600001n V_hig
+ 23.700000n V_hig
+ 23.700001n V_hig
+ 23.800000n V_hig
+ 23.800001n V_hig
+ 23.900000n V_hig
+ 23.900001n V_hig
+ 24.000000n V_hig
+ 24.000001n V_hig
+ 24.100000n V_hig
+ 24.100001n V_hig
+ 24.200000n V_hig
+ 24.200001n V_hig
+ 24.300000n V_hig
+ 24.300001n V_hig
+ 24.400000n V_hig
+ 24.400001n V_hig
+ 24.500000n V_hig
+ 24.500001n V_hig
+ 24.600000n V_hig
+ 24.600001n V_hig
+ 24.700000n V_hig
+ 24.700001n V_hig
+ 24.800000n V_hig
+ 24.800001n V_hig
+ 24.900000n V_hig
+ 24.900001n V_hig
+ 25.000000n V_hig
+ 25.000001n V_hig
+ 25.100000n V_hig
+ 25.100001n V_hig
+ 25.200000n V_hig
+ 25.200001n V_hig
+ 25.300000n V_hig
+ 25.300001n V_hig
+ 25.400000n V_hig
+ 25.400001n V_hig
+ 25.500000n V_hig
+ 25.500001n V_hig
+ 25.600000n V_hig
+ 25.600001n V_hig
+ 25.700000n V_hig
+ 25.700001n V_hig
+ 25.800000n V_hig
+ 25.800001n V_hig
+ 25.900000n V_hig
+ 25.900001n V_hig
+ 26.000000n V_hig
+ 26.000001n V_hig
+ 26.100000n V_hig
+ 26.100001n V_hig
+ 26.200000n V_hig
+ 26.200001n V_hig
+ 26.300000n V_hig
+ 26.300001n V_hig
+ 26.400000n V_hig
+ 26.400001n V_hig
+ 26.500000n V_hig
+ 26.500001n V_hig
+ 26.600000n V_hig
+ 26.600001n V_hig
+ 26.700000n V_hig
+ 26.700001n V_hig
+ 26.800000n V_hig
+ 26.800001n V_hig
+ 26.900000n V_hig
+ 26.900001n V_hig
+ 27.000000n V_hig
+ 27.000001n V_low
+ 27.100000n V_low
+ 27.100001n V_low
+ 27.200000n V_low
+ 27.200001n V_low
+ 27.300000n V_low
+ 27.300001n V_low
+ 27.400000n V_low
+ 27.400001n V_low
+ 27.500000n V_low
+ 27.500001n V_low
+ 27.600000n V_low
+ 27.600001n V_low
+ 27.700000n V_low
+ 27.700001n V_low
+ 27.800000n V_low
+ 27.800001n V_low
+ 27.900000n V_low
+ 27.900001n V_low
+ 28.000000n V_low
+ 28.000001n V_low
+ 28.100000n V_low
+ 28.100001n V_low
+ 28.200000n V_low
+ 28.200001n V_low
+ 28.300000n V_low
+ 28.300001n V_low
+ 28.400000n V_low
+ 28.400001n V_low
+ 28.500000n V_low
+ 28.500001n V_low
+ 28.600000n V_low
+ 28.600001n V_low
+ 28.700000n V_low
+ 28.700001n V_low
+ 28.800000n V_low
+ 28.800001n V_low
+ 28.900000n V_low
+ 28.900001n V_low
+ 29.000000n V_low
+ 29.000001n V_hig
+ 29.100000n V_hig
+ 29.100001n V_hig
+ 29.200000n V_hig
+ 29.200001n V_hig
+ 29.300000n V_hig
+ 29.300001n V_hig
+ 29.400000n V_hig
+ 29.400001n V_hig
+ 29.500000n V_hig
+ 29.500001n V_hig
+ 29.600000n V_hig
+ 29.600001n V_hig
+ 29.700000n V_hig
+ 29.700001n V_hig
+ 29.800000n V_hig
+ 29.800001n V_hig
+ 29.900000n V_hig
+ 29.900001n V_hig
+ 30.000000n V_hig
+ 30.000001n V_hig
+ 30.100000n V_hig
+ 30.100001n V_hig
+ 30.200000n V_hig
+ 30.200001n V_hig
+ 30.300000n V_hig
+ 30.300001n V_hig
+ 30.400000n V_hig
+ 30.400001n V_hig
+ 30.500000n V_hig
+ 30.500001n V_hig
+ 30.600000n V_hig
+ 30.600001n V_hig
+ 30.700000n V_hig
+ 30.700001n V_hig
+ 30.800000n V_hig
+ 30.800001n V_hig
+ 30.900000n V_hig
+ 30.900001n V_hig
+ 31.000000n V_hig
+ 31.000001n V_low
+ 31.100000n V_low
+ 31.100001n V_low
+ 31.200000n V_low
+ 31.200001n V_low
+ 31.300000n V_low
+ 31.300001n V_low
+ 31.400000n V_low
+ 31.400001n V_low
+ 31.500000n V_low
+ 31.500001n V_low
+ 31.600000n V_low
+ 31.600001n V_low
+ 31.700000n V_low
+ 31.700001n V_low
+ 31.800000n V_low
+ 31.800001n V_low
+ 31.900000n V_low
+ 31.900001n V_low
+ 32.000000n V_low
+ 32.000001n V_low
+ 32.100000n V_low
+ 32.100001n V_low
+ 32.200000n V_low
+ 32.200001n V_low
+ 32.300000n V_low
+ 32.300001n V_low
+ 32.400000n V_low
+ 32.400001n V_low
+ 32.500000n V_low
+ 32.500001n V_low
+ 32.600000n V_low
+ 32.600001n V_low
+ 32.700000n V_low
+ 32.700001n V_low
+ 32.800000n V_low
+ 32.800001n V_low
+ 32.900000n V_low
+ 32.900001n V_low
+ 33.000000n V_low
+ 33.000001n V_low
+ 33.100000n V_low
+ 33.100001n V_low
+ 33.200000n V_low
+ 33.200001n V_low
+ 33.300000n V_low
+ 33.300001n V_low
+ 33.400000n V_low
+ 33.400001n V_low
+ 33.500000n V_low
+ 33.500001n V_low
+ 33.600000n V_low
+ 33.600001n V_low
+ 33.700000n V_low
+ 33.700001n V_low
+ 33.800000n V_low
+ 33.800001n V_low
+ 33.900000n V_low
+ 33.900001n V_low
+ 34.000000n V_low
+ 34.000001n V_low
+ 34.100000n V_low
+ 34.100001n V_low
+ 34.200000n V_low
+ 34.200001n V_low
+ 34.300000n V_low
+ 34.300001n V_low
+ 34.400000n V_low
+ 34.400001n V_low
+ 34.500000n V_low
+ 34.500001n V_low
+ 34.600000n V_low
+ 34.600001n V_low
+ 34.700000n V_low
+ 34.700001n V_low
+ 34.800000n V_low
+ 34.800001n V_low
+ 34.900000n V_low
+ 34.900001n V_low
+ 35.000000n V_low
+ 35.000001n V_low
+ 35.100000n V_low
+ 35.100001n V_low
+ 35.200000n V_low
+ 35.200001n V_low
+ 35.300000n V_low
+ 35.300001n V_low
+ 35.400000n V_low
+ 35.400001n V_low
+ 35.500000n V_low
+ 35.500001n V_low
+ 35.600000n V_low
+ 35.600001n V_low
+ 35.700000n V_low
+ 35.700001n V_low
+ 35.800000n V_low
+ 35.800001n V_low
+ 35.900000n V_low
+ 35.900001n V_low
+ 36.000000n V_low
+ 36.000001n V_low
+ 36.100000n V_low
+ 36.100001n V_low
+ 36.200000n V_low
+ 36.200001n V_low
+ 36.300000n V_low
+ 36.300001n V_low
+ 36.400000n V_low
+ 36.400001n V_low
+ 36.500000n V_low
+ 36.500001n V_low
+ 36.600000n V_low
+ 36.600001n V_low
+ 36.700000n V_low
+ 36.700001n V_low
+ 36.800000n V_low
+ 36.800001n V_low
+ 36.900000n V_low
+ 36.900001n V_low
+ 37.000000n V_low
+ 37.000001n V_hig
+ 37.100000n V_hig
+ 37.100001n V_hig
+ 37.200000n V_hig
+ 37.200001n V_hig
+ 37.300000n V_hig
+ 37.300001n V_hig
+ 37.400000n V_hig
+ 37.400001n V_hig
+ 37.500000n V_hig
+ 37.500001n V_hig
+ 37.600000n V_hig
+ 37.600001n V_hig
+ 37.700000n V_hig
+ 37.700001n V_hig
+ 37.800000n V_hig
+ 37.800001n V_hig
+ 37.900000n V_hig
+ 37.900001n V_hig
+ 38.000000n V_hig
+ 38.000001n V_low
+ 38.100000n V_low
+ 38.100001n V_low
+ 38.200000n V_low
+ 38.200001n V_low
+ 38.300000n V_low
+ 38.300001n V_low
+ 38.400000n V_low
+ 38.400001n V_low
+ 38.500000n V_low
+ 38.500001n V_low
+ 38.600000n V_low
+ 38.600001n V_low
+ 38.700000n V_low
+ 38.700001n V_low
+ 38.800000n V_low
+ 38.800001n V_low
+ 38.900000n V_low
+ 38.900001n V_low
+ 39.000000n V_low
+ 39.000001n V_low
+ 39.100000n V_low
+ 39.100001n V_low
+ 39.200000n V_low
+ 39.200001n V_low
+ 39.300000n V_low
+ 39.300001n V_low
+ 39.400000n V_low
+ 39.400001n V_low
+ 39.500000n V_low
+ 39.500001n V_low
+ 39.600000n V_low
+ 39.600001n V_low
+ 39.700000n V_low
+ 39.700001n V_low
+ 39.800000n V_low
+ 39.800001n V_low
+ 39.900000n V_low
+ 39.900001n V_low
+ 40.000000n V_low
+ 40.000001n V_low
+ 40.100000n V_low
+ 40.100001n V_low
+ 40.200000n V_low
+ 40.200001n V_low
+ 40.300000n V_low
+ 40.300001n V_low
+ 40.400000n V_low
+ 40.400001n V_low
+ 40.500000n V_low
+ 40.500001n V_low
+ 40.600000n V_low
+ 40.600001n V_low
+ 40.700000n V_low
+ 40.700001n V_low
+ 40.800000n V_low
+ 40.800001n V_low
+ 40.900000n V_low
+ 40.900001n V_low
+ 41.000000n V_low
+ 41.000001n V_hig
+ 41.100000n V_hig
+ 41.100001n V_hig
+ 41.200000n V_hig
+ 41.200001n V_hig
+ 41.300000n V_hig
+ 41.300001n V_hig
+ 41.400000n V_hig
+ 41.400001n V_hig
+ 41.500000n V_hig
+ 41.500001n V_hig
+ 41.600000n V_hig
+ 41.600001n V_hig
+ 41.700000n V_hig
+ 41.700001n V_hig
+ 41.800000n V_hig
+ 41.800001n V_hig
+ 41.900000n V_hig
+ 41.900001n V_hig
+ 42.000000n V_hig
+ 42.000001n V_hig
+ 42.100000n V_hig
+ 42.100001n V_hig
+ 42.200000n V_hig
+ 42.200001n V_hig
+ 42.300000n V_hig
+ 42.300001n V_hig
+ 42.400000n V_hig
+ 42.400001n V_hig
+ 42.500000n V_hig
+ 42.500001n V_hig
+ 42.600000n V_hig
+ 42.600001n V_hig
+ 42.700000n V_hig
+ 42.700001n V_hig
+ 42.800000n V_hig
+ 42.800001n V_hig
+ 42.900000n V_hig
+ 42.900001n V_hig
+ 43.000000n V_hig
+ 43.000001n V_low
+ 43.100000n V_low
+ 43.100001n V_low
+ 43.200000n V_low
+ 43.200001n V_low
+ 43.300000n V_low
+ 43.300001n V_low
+ 43.400000n V_low
+ 43.400001n V_low
+ 43.500000n V_low
+ 43.500001n V_low
+ 43.600000n V_low
+ 43.600001n V_low
+ 43.700000n V_low
+ 43.700001n V_low
+ 43.800000n V_low
+ 43.800001n V_low
+ 43.900000n V_low
+ 43.900001n V_low
+ 44.000000n V_low
+ 44.000001n V_low
+ 44.100000n V_low
+ 44.100001n V_low
+ 44.200000n V_low
+ 44.200001n V_low
+ 44.300000n V_low
+ 44.300001n V_low
+ 44.400000n V_low
+ 44.400001n V_low
+ 44.500000n V_low
+ 44.500001n V_low
+ 44.600000n V_low
+ 44.600001n V_low
+ 44.700000n V_low
+ 44.700001n V_low
+ 44.800000n V_low
+ 44.800001n V_low
+ 44.900000n V_low
+ 44.900001n V_low
+ 45.000000n V_low
+ 45.000001n V_low
+ 45.100000n V_low
+ 45.100001n V_low
+ 45.200000n V_low
+ 45.200001n V_low
+ 45.300000n V_low
+ 45.300001n V_low
+ 45.400000n V_low
+ 45.400001n V_low
+ 45.500000n V_low
+ 45.500001n V_low
+ 45.600000n V_low
+ 45.600001n V_low
+ 45.700000n V_low
+ 45.700001n V_low
+ 45.800000n V_low
+ 45.800001n V_low
+ 45.900000n V_low
+ 45.900001n V_low
+ 46.000000n V_low
+ 46.000001n V_hig
+ 46.100000n V_hig
+ 46.100001n V_hig
+ 46.200000n V_hig
+ 46.200001n V_hig
+ 46.300000n V_hig
+ 46.300001n V_hig
+ 46.400000n V_hig
+ 46.400001n V_hig
+ 46.500000n V_hig
+ 46.500001n V_hig
+ 46.600000n V_hig
+ 46.600001n V_hig
+ 46.700000n V_hig
+ 46.700001n V_hig
+ 46.800000n V_hig
+ 46.800001n V_hig
+ 46.900000n V_hig
+ 46.900001n V_hig
+ 47.000000n V_hig
+ 47.000001n V_hig
+ 47.100000n V_hig
+ 47.100001n V_hig
+ 47.200000n V_hig
+ 47.200001n V_hig
+ 47.300000n V_hig
+ 47.300001n V_hig
+ 47.400000n V_hig
+ 47.400001n V_hig
+ 47.500000n V_hig
+ 47.500001n V_hig
+ 47.600000n V_hig
+ 47.600001n V_hig
+ 47.700000n V_hig
+ 47.700001n V_hig
+ 47.800000n V_hig
+ 47.800001n V_hig
+ 47.900000n V_hig
+ 47.900001n V_hig
+ 48.000000n V_hig
+ 48.000001n V_low
+ 48.100000n V_low
+ 48.100001n V_low
+ 48.200000n V_low
+ 48.200001n V_low
+ 48.300000n V_low
+ 48.300001n V_low
+ 48.400000n V_low
+ 48.400001n V_low
+ 48.500000n V_low
+ 48.500001n V_low
+ 48.600000n V_low
+ 48.600001n V_low
+ 48.700000n V_low
+ 48.700001n V_low
+ 48.800000n V_low
+ 48.800001n V_low
+ 48.900000n V_low
+ 48.900001n V_low
+ 49.000000n V_low
+ 49.000001n V_hig
+ 49.100000n V_hig
+ 49.100001n V_hig
+ 49.200000n V_hig
+ 49.200001n V_hig
+ 49.300000n V_hig
+ 49.300001n V_hig
+ 49.400000n V_hig
+ 49.400001n V_hig
+ 49.500000n V_hig
+ 49.500001n V_hig
+ 49.600000n V_hig
+ 49.600001n V_hig
+ 49.700000n V_hig
+ 49.700001n V_hig
+ 49.800000n V_hig
+ 49.800001n V_hig
+ 49.900000n V_hig
+ 49.900001n V_hig
+ 50.000000n V_hig
+ 50.000001n V_low
+ 50.100000n V_low
+ 50.100001n V_low
+ 50.200000n V_low
+ 50.200001n V_low
+ 50.300000n V_low
+ 50.300001n V_low
+ 50.400000n V_low
+ 50.400001n V_low
+ 50.500000n V_low
+ 50.500001n V_low
+ 50.600000n V_low
+ 50.600001n V_low
+ 50.700000n V_low
+ 50.700001n V_low
+ 50.800000n V_low
+ 50.800001n V_low
+ 50.900000n V_low
+ 50.900001n V_low
+ 51.000000n V_low
+ 51.000001n V_hig
+ 51.100000n V_hig
+ 51.100001n V_hig
+ 51.200000n V_hig
+ 51.200001n V_hig
+ 51.300000n V_hig
+ 51.300001n V_hig
+ 51.400000n V_hig
+ 51.400001n V_hig
+ 51.500000n V_hig
+ 51.500001n V_hig
+ 51.600000n V_hig
+ 51.600001n V_hig
+ 51.700000n V_hig
+ 51.700001n V_hig
+ 51.800000n V_hig
+ 51.800001n V_hig
+ 51.900000n V_hig
+ 51.900001n V_hig
+ 52.000000n V_hig
+ 52.000001n V_hig
+ 52.100000n V_hig
+ 52.100001n V_hig
+ 52.200000n V_hig
+ 52.200001n V_hig
+ 52.300000n V_hig
+ 52.300001n V_hig
+ 52.400000n V_hig
+ 52.400001n V_hig
+ 52.500000n V_hig
+ 52.500001n V_hig
+ 52.600000n V_hig
+ 52.600001n V_hig
+ 52.700000n V_hig
+ 52.700001n V_hig
+ 52.800000n V_hig
+ 52.800001n V_hig
+ 52.900000n V_hig
+ 52.900001n V_hig
+ 53.000000n V_hig
+ 53.000001n V_low
+ 53.100000n V_low
+ 53.100001n V_low
+ 53.200000n V_low
+ 53.200001n V_low
+ 53.300000n V_low
+ 53.300001n V_low
+ 53.400000n V_low
+ 53.400001n V_low
+ 53.500000n V_low
+ 53.500001n V_low
+ 53.600000n V_low
+ 53.600001n V_low
+ 53.700000n V_low
+ 53.700001n V_low
+ 53.800000n V_low
+ 53.800001n V_low
+ 53.900000n V_low
+ 53.900001n V_low
+ 54.000000n V_low
+ 54.000001n V_low
+ 54.100000n V_low
+ 54.100001n V_low
+ 54.200000n V_low
+ 54.200001n V_low
+ 54.300000n V_low
+ 54.300001n V_low
+ 54.400000n V_low
+ 54.400001n V_low
+ 54.500000n V_low
+ 54.500001n V_low
+ 54.600000n V_low
+ 54.600001n V_low
+ 54.700000n V_low
+ 54.700001n V_low
+ 54.800000n V_low
+ 54.800001n V_low
+ 54.900000n V_low
+ 54.900001n V_low
+ 55.000000n V_low
+ 55.000001n V_hig
+ 55.100000n V_hig
+ 55.100001n V_hig
+ 55.200000n V_hig
+ 55.200001n V_hig
+ 55.300000n V_hig
+ 55.300001n V_hig
+ 55.400000n V_hig
+ 55.400001n V_hig
+ 55.500000n V_hig
+ 55.500001n V_hig
+ 55.600000n V_hig
+ 55.600001n V_hig
+ 55.700000n V_hig
+ 55.700001n V_hig
+ 55.800000n V_hig
+ 55.800001n V_hig
+ 55.900000n V_hig
+ 55.900001n V_hig
+ 56.000000n V_hig
+ 56.000001n V_low
+ 56.100000n V_low
+ 56.100001n V_low
+ 56.200000n V_low
+ 56.200001n V_low
+ 56.300000n V_low
+ 56.300001n V_low
+ 56.400000n V_low
+ 56.400001n V_low
+ 56.500000n V_low
+ 56.500001n V_low
+ 56.600000n V_low
+ 56.600001n V_low
+ 56.700000n V_low
+ 56.700001n V_low
+ 56.800000n V_low
+ 56.800001n V_low
+ 56.900000n V_low
+ 56.900001n V_low
+ 57.000000n V_low
+ 57.000001n V_low
+ 57.100000n V_low
+ 57.100001n V_low
+ 57.200000n V_low
+ 57.200001n V_low
+ 57.300000n V_low
+ 57.300001n V_low
+ 57.400000n V_low
+ 57.400001n V_low
+ 57.500000n V_low
+ 57.500001n V_low
+ 57.600000n V_low
+ 57.600001n V_low
+ 57.700000n V_low
+ 57.700001n V_low
+ 57.800000n V_low
+ 57.800001n V_low
+ 57.900000n V_low
+ 57.900001n V_low
+ 58.000000n V_low
+ 58.000001n V_hig
+ 58.100000n V_hig
+ 58.100001n V_hig
+ 58.200000n V_hig
+ 58.200001n V_hig
+ 58.300000n V_hig
+ 58.300001n V_hig
+ 58.400000n V_hig
+ 58.400001n V_hig
+ 58.500000n V_hig
+ 58.500001n V_hig
+ 58.600000n V_hig
+ 58.600001n V_hig
+ 58.700000n V_hig
+ 58.700001n V_hig
+ 58.800000n V_hig
+ 58.800001n V_hig
+ 58.900000n V_hig
+ 58.900001n V_hig
+ 59.000000n V_hig
+ 59.000001n V_low
+ 59.100000n V_low
+ 59.100001n V_low
+ 59.200000n V_low
+ 59.200001n V_low
+ 59.300000n V_low
+ 59.300001n V_low
+ 59.400000n V_low
+ 59.400001n V_low
+ 59.500000n V_low
+ 59.500001n V_low
+ 59.600000n V_low
+ 59.600001n V_low
+ 59.700000n V_low
+ 59.700001n V_low
+ 59.800000n V_low
+ 59.800001n V_low
+ 59.900000n V_low
+ 59.900001n V_low
+ 60.000000n V_low
+ 60.000001n V_low
+ 60.100000n V_low
+ 60.100001n V_low
+ 60.200000n V_low
+ 60.200001n V_low
+ 60.300000n V_low
+ 60.300001n V_low
+ 60.400000n V_low
+ 60.400001n V_low
+ 60.500000n V_low
+ 60.500001n V_low
+ 60.600000n V_low
+ 60.600001n V_low
+ 60.700000n V_low
+ 60.700001n V_low
+ 60.800000n V_low
+ 60.800001n V_low
+ 60.900000n V_low
+ 60.900001n V_low
+ 61.000000n V_low
+ 61.000001n V_hig
+ 61.100000n V_hig
+ 61.100001n V_hig
+ 61.200000n V_hig
+ 61.200001n V_hig
+ 61.300000n V_hig
+ 61.300001n V_hig
+ 61.400000n V_hig
+ 61.400001n V_hig
+ 61.500000n V_hig
+ 61.500001n V_hig
+ 61.600000n V_hig
+ 61.600001n V_hig
+ 61.700000n V_hig
+ 61.700001n V_hig
+ 61.800000n V_hig
+ 61.800001n V_hig
+ 61.900000n V_hig
+ 61.900001n V_hig
+ 62.000000n V_hig
+ 62.000001n V_low
+ 62.100000n V_low
+ 62.100001n V_low
+ 62.200000n V_low
+ 62.200001n V_low
+ 62.300000n V_low
+ 62.300001n V_low
+ 62.400000n V_low
+ 62.400001n V_low
+ 62.500000n V_low
+ 62.500001n V_low
+ 62.600000n V_low
+ 62.600001n V_low
+ 62.700000n V_low
+ 62.700001n V_low
+ 62.800000n V_low
+ 62.800001n V_low
+ 62.900000n V_low
+ 62.900001n V_low
+ 63.000000n V_low
+ 63.000001n V_low
+ 63.100000n V_low
+ 63.100001n V_low
+ 63.200000n V_low
+ 63.200001n V_low
+ 63.300000n V_low
+ 63.300001n V_low
+ 63.400000n V_low
+ 63.400001n V_low
+ 63.500000n V_low
+ 63.500001n V_low
+ 63.600000n V_low
+ 63.600001n V_low
+ 63.700000n V_low
+ 63.700001n V_low
+ 63.800000n V_low
+ 63.800001n V_low
+ 63.900000n V_low
+ 63.900001n V_low
+ 64.000000n V_low
+ 64.000001n V_hig
+ 64.100000n V_hig
+ 64.100001n V_hig
+ 64.200000n V_hig
+ 64.200001n V_hig
+ 64.300000n V_hig
+ 64.300001n V_hig
+ 64.400000n V_hig
+ 64.400001n V_hig
+ 64.500000n V_hig
+ 64.500001n V_hig
+ 64.600000n V_hig
+ 64.600001n V_hig
+ 64.700000n V_hig
+ 64.700001n V_hig
+ 64.800000n V_hig
+ 64.800001n V_hig
+ 64.900000n V_hig
+ 64.900001n V_hig
+ 65.000000n V_hig
+ 65.000001n V_hig
+ 65.100000n V_hig
+ 65.100001n V_hig
+ 65.200000n V_hig
+ 65.200001n V_hig
+ 65.300000n V_hig
+ 65.300001n V_hig
+ 65.400000n V_hig
+ 65.400001n V_hig
+ 65.500000n V_hig
+ 65.500001n V_hig
+ 65.600000n V_hig
+ 65.600001n V_hig
+ 65.700000n V_hig
+ 65.700001n V_hig
+ 65.800000n V_hig
+ 65.800001n V_hig
+ 65.900000n V_hig
+ 65.900001n V_hig
+ 66.000000n V_hig
+ 66.000001n V_low
+ 66.100000n V_low
+ 66.100001n V_low
+ 66.200000n V_low
+ 66.200001n V_low
+ 66.300000n V_low
+ 66.300001n V_low
+ 66.400000n V_low
+ 66.400001n V_low
+ 66.500000n V_low
+ 66.500001n V_low
+ 66.600000n V_low
+ 66.600001n V_low
+ 66.700000n V_low
+ 66.700001n V_low
+ 66.800000n V_low
+ 66.800001n V_low
+ 66.900000n V_low
+ 66.900001n V_low
+ 67.000000n V_low
+ 67.000001n V_hig
+ 67.100000n V_hig
+ 67.100001n V_hig
+ 67.200000n V_hig
+ 67.200001n V_hig
+ 67.300000n V_hig
+ 67.300001n V_hig
+ 67.400000n V_hig
+ 67.400001n V_hig
+ 67.500000n V_hig
+ 67.500001n V_hig
+ 67.600000n V_hig
+ 67.600001n V_hig
+ 67.700000n V_hig
+ 67.700001n V_hig
+ 67.800000n V_hig
+ 67.800001n V_hig
+ 67.900000n V_hig
+ 67.900001n V_hig
+ 68.000000n V_hig
+ 68.000001n V_low
+ 68.100000n V_low
+ 68.100001n V_low
+ 68.200000n V_low
+ 68.200001n V_low
+ 68.300000n V_low
+ 68.300001n V_low
+ 68.400000n V_low
+ 68.400001n V_low
+ 68.500000n V_low
+ 68.500001n V_low
+ 68.600000n V_low
+ 68.600001n V_low
+ 68.700000n V_low
+ 68.700001n V_low
+ 68.800000n V_low
+ 68.800001n V_low
+ 68.900000n V_low
+ 68.900001n V_low
+ 69.000000n V_low
+ 69.000001n V_low
+ 69.100000n V_low
+ 69.100001n V_low
+ 69.200000n V_low
+ 69.200001n V_low
+ 69.300000n V_low
+ 69.300001n V_low
+ 69.400000n V_low
+ 69.400001n V_low
+ 69.500000n V_low
+ 69.500001n V_low
+ 69.600000n V_low
+ 69.600001n V_low
+ 69.700000n V_low
+ 69.700001n V_low
+ 69.800000n V_low
+ 69.800001n V_low
+ 69.900000n V_low
+ 69.900001n V_low
+ 70.000000n V_low
+ 70.000001n V_hig
+ 70.100000n V_hig
+ 70.100001n V_hig
+ 70.200000n V_hig
+ 70.200001n V_hig
+ 70.300000n V_hig
+ 70.300001n V_hig
+ 70.400000n V_hig
+ 70.400001n V_hig
+ 70.500000n V_hig
+ 70.500001n V_hig
+ 70.600000n V_hig
+ 70.600001n V_hig
+ 70.700000n V_hig
+ 70.700001n V_hig
+ 70.800000n V_hig
+ 70.800001n V_hig
+ 70.900000n V_hig
+ 70.900001n V_hig
+ 71.000000n V_hig
+ 71.000001n V_low
+ 71.100000n V_low
+ 71.100001n V_low
+ 71.200000n V_low
+ 71.200001n V_low
+ 71.300000n V_low
+ 71.300001n V_low
+ 71.400000n V_low
+ 71.400001n V_low
+ 71.500000n V_low
+ 71.500001n V_low
+ 71.600000n V_low
+ 71.600001n V_low
+ 71.700000n V_low
+ 71.700001n V_low
+ 71.800000n V_low
+ 71.800001n V_low
+ 71.900000n V_low
+ 71.900001n V_low
+ 72.000000n V_low
+ 72.000001n V_hig
+ 72.100000n V_hig
+ 72.100001n V_hig
+ 72.200000n V_hig
+ 72.200001n V_hig
+ 72.300000n V_hig
+ 72.300001n V_hig
+ 72.400000n V_hig
+ 72.400001n V_hig
+ 72.500000n V_hig
+ 72.500001n V_hig
+ 72.600000n V_hig
+ 72.600001n V_hig
+ 72.700000n V_hig
+ 72.700001n V_hig
+ 72.800000n V_hig
+ 72.800001n V_hig
+ 72.900000n V_hig
+ 72.900001n V_hig
+ 73.000000n V_hig
+ 73.000001n V_hig
+ 73.100000n V_hig
+ 73.100001n V_hig
+ 73.200000n V_hig
+ 73.200001n V_hig
+ 73.300000n V_hig
+ 73.300001n V_hig
+ 73.400000n V_hig
+ 73.400001n V_hig
+ 73.500000n V_hig